opendss_networks/LV2_43bus/lines.dss
new line.L_15 lineCode=ughv_400al_triplex_ug_4w_bundled bus1=B2206 bus2=B2574 length=0.000592170452128 units=km phases=4
new line.L_50 lineCode=ughv_400al_triplex_ug_4w_bundled bus1=B278 bus2=B2749 length=0.000600000000000 units=km phases=4
new line.L_119 lineCode=abc4x16_lv_oh_4w_bundled bus1=B125 bus2=B2870 length=0.00928899658128 units=km phases=4
new line.L_139 lineCode=abc4x16_lv_oh_4w_bundled bus1=B2242 bus2=B359 length=0.00906175796890 units=km phases=4
new line.L_186 lineCode=ugsc_16cu_xlpe/nyl/pvc_ug_4w_bundled bus1=B3348 bus2=B1099 length=0.0201974518186 units=km phases=4
new line.L_236 lineCode=moon_lv_oh_4wire bus1=B2555 bus2=B1535 length=0.0314409522267 units=km phases=4
new line.L_418 lineCode=ugsc_16cu_xlpe/nyl/pvc_ug_4w_bundled bus1=B146 bus2=B2359 length=0.0110523645787 units=km phases=4
new line.L_495 lineCode=ughv_400al_triplex_ug_4w_bundled bus1=B832 bus2=B3291 length=0.000200000000000 units=km phases=4
new line.L_806 lineCode=moon_lv_oh_4wire bus1=B2098 bus2=B1617 length=0.0713646826807 units=km phases=4
new line.L_1015 lineCode=ughv_400al_triplex_ug_4w_bundled bus1=B1522 bus2=B617 length=0.000245780270661 units=km phases=4
! new line.L_1299 lineCode=uglv_240al_xlpe/nyl/pvc_ug_4w_bundled bus1=B3128 bus2=B491 length=0.0102332371872 units=km phases=4
new line.L_1380 lineCode=uglv_240al_xlpe/nyl/pvc_ug_4w_bundled bus1=B2749 bus2=B491 length=0.0100378854013 units=km phases=4
new line.L_1386 lineCode=ughv_400al_triplex_ug_4w_bundled bus1=B278 bus2=B3128 length=0.000400000000000 units=km phases=4
new line.L_1413 lineCode=ugsc_16cu_xlpe/nyl/pvc_ug_4w_bundled bus1=B1099 bus2=B2688 length=0.00973753710675 units=km phases=4
new line.L_1659 lineCode=abc4x16_lv_oh_4w_bundled bus1=B1028 bus2=B2821 length=0.0366467702045 units=km phases=4
new line.L_1816 lineCode=moon_lv_oh_4wire bus1=B2206 bus2=B2555 length=0.0337097211418 units=km phases=4
new line.L_1926 lineCode=ughv_400al_triplex_ug_4w_bundled bus1=B2821 bus2=B535 length=0.000306589222236 units=km phases=4
new line.L_2034 lineCode=uglv_240al_xlpe/nyl/pvc_ug_4w_bundled bus1=B1586 bus2=B776 length=0.122614612514 units=km phases=4
new line.L_2169 lineCode=ughv_400al_triplex_ug_4w_bundled bus1=B2555 bus2=B350 length=0.000200000000000 units=km phases=4
new line.L_2176 lineCode=ughv_400al_triplex_ug_4w_bundled bus1=B535 bus2=B832 length=0.000200000000000 units=km phases=4
new line.L_2193 lineCode=ughv_400al_triplex_ug_4w_bundled bus1=B2098 bus2=B1535 length=0.000601739766652 units=km phases=4
new line.L_2227 lineCode=ughv_400al_triplex_ug_4w_bundled bus1=B2870 bus2=B3128 length=0.000295507501210 units=km phases=4
new line.L_2263 lineCode=ugsc_16cu_xlpe/nyl/pvc_ug_4w_bundled bus1=B146 bus2=B1099 length=0.0179749030140 units=km phases=4
new line.L_2741 lineCode=ughv_400al_triplex_ug_4w_bundled bus1=B242 bus2=B1586 length=0.000305966421029 units=km phases=4
new line.L_2805 lineCode=ughv_400al_triplex_ug_4w_bundled bus1=B359 bus2=B2749 length=0.000295507501210 units=km phases=4
new line.L_2978 lineCode=ugsc_16cu_xlpe/nyl/pvc_ug_4w_bundled bus1=B3348 bus2=B2348 length=0.00829069985741 units=km phases=4
new line.L_2980 lineCode=moon_lv_oh_4wire bus1=B2574 bus2=B2630 length=0.0891906488397 units=km phases=4
new line.L_3159 lineCode=ughv_400al_triplex_ug_4w_bundled bus1=B1906 bus2=B2630 length=0.000305966421029 units=km phases=4
new line.L_3203 lineCode=abc4x16_lv_oh_4w_bundled bus1=B3319 bus2=B1906 length=0.0670227753356 units=km phases=4
new line.L_3298 lineCode=ugsc_16cu_xlpe/nyl/pvc_ug_4w_bundled bus1=B928 bus2=B2751 length=0.00816128514729 units=km phases=4
new line.L_3409 lineCode=abc4x16_lv_oh_4w_bundled bus1=B3002 bus2=B333 length=0.00952026562061 units=km phases=4
new line.L_3526 lineCode=ughv_400al_triplex_ug_4w_bundled bus1=B333 bus2=B1617 length=0.000295507501210 units=km phases=4
new line.L_3680 lineCode=moon_lv_oh_4wire bus1=B1617 bus2=B535 length=0.0592653319425 units=km phases=4
new line.L_3786 lineCode=abc4x16_lv_oh_4w_bundled bus1=B2935 bus2=B242 length=0.0670098680321 units=km phases=4
new line.L_4052 lineCode=ugsc_16cu_xlpe/nyl/pvc_ug_4w_bundled bus1=B2751 bus2=B3348 length=0.0272508737774 units=km phases=4
new line.L_4181 lineCode=ughv_400al_triplex_ug_4w_bundled bus1=B2630 bus2=B1586 length=0.000200000000000 units=km phases=4
new line.L_4353 lineCode=ughv_400al_triplex_ug_4w_bundled bus1=B350 bus2=B2359 length=0.000200000000000 units=km phases=4
new line.L_4450 lineCode=ughv_400al_triplex_ug_4w_bundled bus1=B1522 bus2=B2252 length=0.000386636051821 units=km phases=4
new line.L_4542 lineCode=ughv_400al_triplex_ug_4w_bundled bus1=B1982 bus2=B2341 length=0.000299144507835 units=km phases=4
new line.L_4626 lineCode=ughv_400al_triplex_ug_4w_bundled bus1=B278 bus2=B1617 length=0.000200000000000 units=km phases=4
new line.L_4668 lineCode=ugsc_16cu_xlpe/nyl/pvc_ug_4w_bundled bus1=B1254 bus2=B491 length=0.185914635067 units=km phases=4
